C4H8Cl2S
  RasMol  02279813273D

 15 14  0        0              1 V2000
   -2.3120   -3.2200   -0.0040 Cl  0  0  0  0  0  0  0  0  0  0  0  0
   -2.3320   -1.4200    0.0040 C   0  0  0  0  0  0  0  0  0  0  0  0
   -0.9000   -0.8880   -0.0040 C   0  0  0  0  0  0  0  0  0  0  0  0
   -0.9240    0.9240    0.0040 S   0  0  0  0  0  0  0  0  0  0  0  0
    0.8560    1.2640   -0.0080 C   0  0  0  0  0  0  0  0  0  0  0  0
    1.0880    2.7760   -0.0040 C   0  0  0  0  0  0  0  0  0  0  0  0
    2.8600    3.1120   -0.0160 Cl  0  0  0  0  0  0  0  0  0  0  0  0
   -2.8600   -1.0600   -0.8720 H   0  0  0  0  0  0  0  0  0  0  0  0
   -2.8440   -1.0680    0.9040 H   0  0  0  0  0  0  0  0  0  0  0  0
   -0.3720   -1.2520    0.8800 H   0  0  0  0  0  0  0  0  0  0  0  0
   -0.3920   -1.2400   -0.8960 H   0  0  0  0  0  0  0  0  0  0  0  0
    1.3160    0.8200    0.8720 H   0  0  0  0  0  0  0  0  0  0  0  0
    1.3000    0.8320   -0.9040 H   0  0  0  0  0  0  0  0  0  0  0  0
    0.6280    3.2160   -0.8840 H   0  0  0  0  0  0  0  0  0  0  0  0
    0.6440    3.2080    0.8920 H   0  0  0  0  0  0  0  0  0  0  0  0
 15  6  1  0
 14  6  1  0
 13  5  1  0
 12  5  1  0
 11  3  1  0
 10  3  1  0
  9  2  1  0
  8  2  1  0
  7  6  1  0
  6  5  1  0
  5  4  1  0
  4  3  1  0
  3  2  1  0
  2  1  1  0
M  END
